################################################################################
##################################    Init    ##################################
################################################################################
units           real
atom_style      full
pair_style      lj/cut/coul/long 12.0  12.0
kspace_style    pppm 1e-4
bond_style      harmonic
angle_style     harmonic
dihedral_style  fourier
special_bonds   amber
pair_modify     mix arithmetic
read_data       temp.lmps
  orthogonal box = (-7.93173 -7.93173 -7.93173) to (7.93173 7.93173 7.93173)
  reading atoms ...
  15 atoms
  reading velocities ...
  15 velocities
  scanning bonds ...
  scanning angles ...
  scanning dihedrals ...
  reading bonds ...
  14 bonds
  reading angles ...
  23 angles
  reading dihedrals ...
  30 dihedrals
################################################################################

timestep        1
fix             pysimm_md all nve/limit 0.1
run             2000
PPPM initialization ...
  G vector (1/distance) = 0.196807
  grid = 5 5 5
  stencil order = 5
  estimated absolute RMS force accuracy = 0.00248894
  estimated relative force accuracy = 7.49536e-06
  3d grid and FFT values/proc = 1000 125
  update every 1 steps, delay 10 steps, check yes
Step Temp E_pair E_mol TotEng Press
0    3.3902281  -0.44075603 4.3517334e+29 4.3517334e+29   -12553.995
Loop time of 0.096029 on 1 procs for 2000 steps with 15 atoms

unfix pysimm_md
min_style fire
minimize 0.001 0.001 10000 100000
PPPM initialization ...
  G vector (1/distance) = 0.196807
  grid = 5 5 5
  stencil order = 5
  estimated absolute RMS force accuracy = 0.00248894
  estimated relative force accuracy = 7.49536e-06
  3d grid and FFT values/proc = 1000 125
Step Temp E_pair E_mol TotEng Press
2000            0   0.30467258    33.166012    33.470684   -1271.1249
Loop time of 0.00396299 on 1 procs for 83 steps with 15 atoms

Minimization stats:
  Stopping criterion = energy tolerance
  Energy initial, next-to-last, final =
  Force two-norm initial, final = 239.862 6.8844
  Force max component initial, final = 140.552 2.71033
  Final line search alpha, max atom move = 0 0
  Iterations, force evaluations = 83 83

write_dump all custom pysimm.dump.tmp id q x y z vx vy vz
quit

################################################################################
##################################    Init    ##################################
################################################################################
units           real
atom_style      full
pair_style      lj/cut/coul/long 12.0  12.0
kspace_style    pppm 1e-4
bond_style      harmonic
angle_style     harmonic
dihedral_style  fourier
special_bonds   amber
pair_modify     mix arithmetic
read_data       temp.lmps
  orthogonal box = (-7.93173 -7.93173 -7.93173) to (7.93173 7.93173 7.93173)
  reading atoms ...
  22 atoms
  reading velocities ...
  22 velocities
  scanning bonds ...
  scanning angles ...
  scanning dihedrals ...
  reading bonds ...
  21 bonds
  reading angles ...
  36 angles
  reading dihedrals ...
  51 dihedrals
################################################################################

timestep        1
fix             pysimm_md all nve/limit 0.1
run             2000
PPPM initialization ...
  G vector (1/distance) = 0.196775
  grid = 5 5 5
  stencil order = 5
  estimated absolute RMS force accuracy = 0.00306041
  estimated relative force accuracy = 9.21635e-06
  3d grid and FFT values/proc = 1000 125
  update every 1 steps, delay 10 steps, check yes
Step Temp E_pair E_mol TotEng Press
0    4.6537684   -3.5565966 1.0793836e+27 1.0793836e+27 1.1689613e+40
Loop time of 0.123512 on 1 procs for 2000 steps with 22 atoms

unfix pysimm_md
min_style fire
minimize 0.001 0.001 10000 100000
PPPM initialization ...
  G vector (1/distance) = 0.196775
  grid = 5 5 5
  stencil order = 5
  estimated absolute RMS force accuracy = 0.00306041
  estimated relative force accuracy = 9.21635e-06
  3d grid and FFT values/proc = 1000 125
Step Temp E_pair E_mol TotEng Press
2000            0    2.0126689     61.02904    63.041708    985.56147
Loop time of 0.00573206 on 1 procs for 78 steps with 22 atoms

Minimization stats:
  Stopping criterion = energy tolerance
  Energy initial, next-to-last, final =
  Force two-norm initial, final = 265.835 17.4526
  Force max component initial, final = 101.609 6.19403
  Final line search alpha, max atom move = 0 0
  Iterations, force evaluations = 78 78

write_dump all custom pysimm.dump.tmp id q x y z vx vy vz
quit

################################################################################
##################################    Init    ##################################
################################################################################
units           real
atom_style      full
pair_style      lj/cut/coul/long 12.0  12.0
kspace_style    pppm 1e-4
bond_style      harmonic
angle_style     harmonic
dihedral_style  fourier
special_bonds   amber
pair_modify     mix arithmetic
read_data       temp.lmps
  orthogonal box = (-7.93173 -7.93173 -7.93173) to (7.93173 7.93173 7.93173)
  reading atoms ...
  29 atoms
  reading velocities ...
  29 velocities
  scanning bonds ...
  scanning angles ...
  scanning dihedrals ...
  reading bonds ...
  28 bonds
  reading angles ...
  49 angles
  reading dihedrals ...
  72 dihedrals
################################################################################

timestep        1
fix             pysimm_md all nve/limit 0.1
run             2000
PPPM initialization ...
  G vector (1/distance) = 0.196793
  grid = 5 5 5
  stencil order = 5
  estimated absolute RMS force accuracy = 0.00354013
  estimated relative force accuracy = 1.0661e-05
  3d grid and FFT values/proc = 1000 125
  update every 1 steps, delay 10 steps, check yes
Step Temp E_pair E_mol TotEng Press
0    8.7181767   -2.1101116 5.9530704e+26 5.9530704e+26 1.9482688e+39
Loop time of 0.144336 on 1 procs for 2000 steps with 29 atoms

unfix pysimm_md
min_style fire
minimize 0.001 0.001 10000 100000
PPPM initialization ...
  G vector (1/distance) = 0.196793
  grid = 5 5 5
  stencil order = 5
  estimated absolute RMS force accuracy = 0.00354013
  estimated relative force accuracy = 1.0661e-05
  3d grid and FFT values/proc = 1000 125
Step Temp E_pair E_mol TotEng Press
2000            0   -6.4240312    84.926246    78.502215   -3592.5149
Loop time of 0.00751591 on 1 procs for 93 steps with 29 atoms

Minimization stats:
  Stopping criterion = energy tolerance
  Energy initial, next-to-last, final =
  Force two-norm initial, final = 306.329 11.1334
  Force max component initial, final = 108.704 4.22108
  Final line search alpha, max atom move = 0 0
  Iterations, force evaluations = 93 93

write_dump all custom pysimm.dump.tmp id q x y z vx vy vz
quit

################################################################################
##################################    Init    ##################################
################################################################################
units           real
atom_style      full
pair_style      lj/cut/coul/long 12.0  12.0
kspace_style    pppm 1e-4
bond_style      harmonic
angle_style     harmonic
dihedral_style  fourier
special_bonds   amber
pair_modify     mix arithmetic
read_data       temp.lmps
  orthogonal box = (-7.93173 -7.93173 -7.93173) to (7.93173 7.93173 7.93173)
  reading atoms ...
  36 atoms
  reading velocities ...
  36 velocities
  scanning bonds ...
  scanning angles ...
  scanning dihedrals ...
  reading bonds ...
  35 bonds
  reading angles ...
  62 angles
  reading dihedrals ...
  93 dihedrals
################################################################################

timestep        1
fix             pysimm_md all nve/limit 0.1
run             2000
PPPM initialization ...
  G vector (1/distance) = 0.1968
  grid = 5 5 5
  stencil order = 5
  estimated absolute RMS force accuracy = 0.00396241
  estimated relative force accuracy = 1.19327e-05
  3d grid and FFT values/proc = 1000 125
  update every 1 steps, delay 10 steps, check yes
Step Temp E_pair E_mol TotEng Press
0     4.341164   -7.7732826 1.0848047e+28 1.0848047e+28 4.9875681e+41
Loop time of 0.176406 on 1 procs for 2000 steps with 36 atoms

unfix pysimm_md
min_style fire
minimize 0.001 0.001 10000 100000
PPPM initialization ...
  G vector (1/distance) = 0.1968
  grid = 5 5 5
  stencil order = 5
  estimated absolute RMS force accuracy = 0.00396241
  estimated relative force accuracy = 1.19327e-05
  3d grid and FFT values/proc = 1000 125
Step Temp E_pair E_mol TotEng Press
2000            0    3.1527969    102.75804    105.91084   -1635.6546
Loop time of 0.0022552 on 1 procs for 24 steps with 36 atoms

Minimization stats:
  Stopping criterion = energy tolerance
  Energy initial, next-to-last, final =
  Force two-norm initial, final = 296.69 74.0447
  Force max component initial, final = 116.184 34.9665
  Final line search alpha, max atom move = 0 0
  Iterations, force evaluations = 24 24

write_dump all custom pysimm.dump.tmp id q x y z vx vy vz
quit

################################################################################
##################################    Init    ##################################
################################################################################
units           real
atom_style      full
pair_style      lj/cut/coul/long 12.0  12.0
kspace_style    pppm 1e-4
bond_style      harmonic
angle_style     harmonic
dihedral_style  fourier
special_bonds   amber
pair_modify     mix arithmetic
read_data       temp.lmps
  orthogonal box = (-7.93173 -7.93173 -7.93173) to (7.93173 7.93173 7.93173)
  reading atoms ...
  43 atoms
  reading velocities ...
  43 velocities
  scanning bonds ...
  scanning angles ...
  scanning dihedrals ...
  reading bonds ...
  42 bonds
  reading angles ...
  75 angles
  reading dihedrals ...
  114 dihedrals
################################################################################

timestep        1
fix             pysimm_md all nve/limit 0.1
run             2000
PPPM initialization ...
  G vector (1/distance) = 0.196803
  grid = 5 5 5
  stencil order = 5
  estimated absolute RMS force accuracy = 0.00434393
  estimated relative force accuracy = 1.30816e-05
  3d grid and FFT values/proc = 1000 125
  update every 1 steps, delay 10 steps, check yes
Step Temp E_pair E_mol TotEng Press
0    144.68357   -2.9382045    1010.1882    1025.3635   -14765.832
Loop time of 0.219236 on 1 procs for 2000 steps with 43 atoms

unfix pysimm_md
min_style fire
minimize 0.001 0.001 10000 100000
PPPM initialization ...
  G vector (1/distance) = 0.196803
  grid = 5 5 5
  stencil order = 5
  estimated absolute RMS force accuracy = 0.00434393
  estimated relative force accuracy = 1.30816e-05
  3d grid and FFT values/proc = 1000 125
Step Temp E_pair E_mol TotEng Press
2000            0   -5.0339365    105.19828    100.16434   -3412.6472
Loop time of 0.00654197 on 1 procs for 45 steps with 43 atoms

Minimization stats:
  Stopping criterion = energy tolerance
  Energy initial, next-to-last, final =
  Force two-norm initial, final = 304.566 44.1712
  Force max component initial, final = 85.253 17.5396
  Final line search alpha, max atom move = 0 0
  Iterations, force evaluations = 45 45

write_dump all custom pysimm.dump.tmp id q x y z vx vy vz
quit

################################################################################
##################################    Init    ##################################
################################################################################
units           real
atom_style      full
pair_style      lj/cut/coul/long 12.0  12.0
kspace_style    pppm 1e-4
bond_style      harmonic
angle_style     harmonic
dihedral_style  fourier
special_bonds   amber
pair_modify     mix arithmetic
read_data       temp.lmps
  orthogonal box = (-7.93173 -7.93173 -7.93173) to (7.93173 7.93173 7.93173)
  reading atoms ...
  50 atoms
  reading velocities ...
  50 velocities
  scanning bonds ...
  scanning angles ...
  scanning dihedrals ...
  reading bonds ...
  49 bonds
  reading angles ...
  88 angles
  reading dihedrals ...
  135 dihedrals
################################################################################

timestep        1
fix             pysimm_md all nve/limit 0.1
run             2000
PPPM initialization ...
  G vector (1/distance) = 0.196805
  grid = 5 5 5
  stencil order = 5
  estimated absolute RMS force accuracy = 0.00469461
  estimated relative force accuracy = 1.41377e-05
  3d grid and FFT values/proc = 1000 125
  update every 1 steps, delay 10 steps, check yes
Step Temp E_pair E_mol TotEng Press
0    19.873449   -10.812964 -1.5808184e+28 -1.5808184e+28 2.7132371e+45
Loop time of 0.272299 on 1 procs for 2000 steps with 50 atoms

unfix pysimm_md
min_style fire
minimize 0.001 0.001 10000 100000
PPPM initialization ...
  G vector (1/distance) = 0.196805
  grid = 5 5 5
  stencil order = 5
  estimated absolute RMS force accuracy = 0.00469461
  estimated relative force accuracy = 1.41377e-05
  3d grid and FFT values/proc = 1000 125
Step Temp E_pair E_mol TotEng Press
2000            0   -9.5400694    127.47626    117.93619   -3330.6092
Loop time of 0.0077529 on 1 procs for 44 steps with 50 atoms

Minimization stats:
  Stopping criterion = energy tolerance
  Energy initial, next-to-last, final =
  Force two-norm initial, final = 336.763 69.8579
  Force max component initial, final = 110.652 22.0002
  Final line search alpha, max atom move = 0 0
  Iterations, force evaluations = 44 44

write_dump all custom pysimm.dump.tmp id q x y z vx vy vz
quit

################################################################################
##################################    Init    ##################################
################################################################################
units           real
atom_style      full
pair_style      lj/cut/coul/long 12.0  12.0
kspace_style    pppm 1e-4
bond_style      harmonic
angle_style     harmonic
dihedral_style  fourier
special_bonds   amber
pair_modify     mix arithmetic
read_data       temp.lmps
  orthogonal box = (-7.93173 -7.93173 -7.93173) to (7.93173 7.93173 7.93173)
  reading atoms ...
  57 atoms
  reading velocities ...
  57 velocities
  scanning bonds ...
  scanning angles ...
  scanning dihedrals ...
  reading bonds ...
  56 bonds
  reading angles ...
  101 angles
  reading dihedrals ...
  156 dihedrals
################################################################################

timestep        1
fix             pysimm_md all nve/limit 0.1
run             2000
PPPM initialization ...
  G vector (1/distance) = 0.196806
  grid = 5 5 5
  stencil order = 5
  estimated absolute RMS force accuracy = 0.00502088
  estimated relative force accuracy = 1.51202e-05
  3d grid and FFT values/proc = 1000 125
  update every 1 steps, delay 10 steps, check yes
Step Temp E_pair E_mol TotEng Press
0    59.330635   -16.015282 1.2734512e+27 1.2734512e+27 -1.8898207e+41
Loop time of 0.325173 on 1 procs for 2000 steps with 57 atoms

unfix pysimm_md
min_style fire
minimize 0.001 0.001 10000 100000
PPPM initialization ...
  G vector (1/distance) = 0.196806
  grid = 5 5 5
  stencil order = 5
  estimated absolute RMS force accuracy = 0.00502088
  estimated relative force accuracy = 1.51202e-05
  3d grid and FFT values/proc = 1000 125
Step Temp E_pair E_mol TotEng Press
2000            0   -11.211807    121.51093    110.29913    319.11793
Loop time of 0.00978184 on 1 procs for 56 steps with 57 atoms

Minimization stats:
  Stopping criterion = energy tolerance
  Energy initial, next-to-last, final =
  Force two-norm initial, final = 332.319 31.5041
  Force max component initial, final = 151.645 11.304
  Final line search alpha, max atom move = 0 0
  Iterations, force evaluations = 56 56

write_dump all custom pysimm.dump.tmp id q x y z vx vy vz
quit

################################################################################
##################################    Init    ##################################
################################################################################
units           real
atom_style      full
pair_style      lj/cut/coul/long 12.0  12.0
kspace_style    pppm 1e-4
bond_style      harmonic
angle_style     harmonic
dihedral_style  fourier
special_bonds   amber
pair_modify     mix arithmetic
read_data       temp.lmps
  orthogonal box = (-7.93173 -7.93173 -7.93173) to (7.93173 7.93173 7.93173)
  reading atoms ...
  64 atoms
  reading velocities ...
  64 velocities
  scanning bonds ...
  scanning angles ...
  scanning dihedrals ...
  reading bonds ...
  63 bonds
  reading angles ...
  114 angles
  reading dihedrals ...
  177 dihedrals
################################################################################

timestep        1
fix             pysimm_md all nve/limit 0.1
run             2000
PPPM initialization ...
  G vector (1/distance) = 0.196806
  grid = 5 5 5
  stencil order = 5
  estimated absolute RMS force accuracy = 0.00532723
  estimated relative force accuracy = 1.60428e-05
  3d grid and FFT values/proc = 1000 125
  update every 1 steps, delay 10 steps, check yes
Step Temp E_pair E_mol TotEng Press
0    13.393963   -16.949594 -1.965463e+26 -1.965463e+26 -2.4937841e+41
Loop time of 0.420393 on 1 procs for 2000 steps with 64 atoms

unfix pysimm_md
min_style fire
minimize 0.001 0.001 10000 100000
PPPM initialization ...
  G vector (1/distance) = 0.196806
  grid = 5 5 5
  stencil order = 5
  estimated absolute RMS force accuracy = 0.00532723
  estimated relative force accuracy = 1.60428e-05
  3d grid and FFT values/proc = 1000 125
Step Temp E_pair E_mol TotEng Press
2000            0   -10.231045    123.47476    113.24372   -1050.1126
Loop time of 0.0189631 on 1 procs for 78 steps with 64 atoms

Minimization stats:
  Stopping criterion = energy tolerance
  Energy initial, next-to-last, final =
  Force two-norm initial, final = 293.506 14.9227
  Force max component initial, final = 79.171 5.40514
  Final line search alpha, max atom move = 0 0
  Iterations, force evaluations = 78 78

write_dump all custom pysimm.dump.tmp id q x y z vx vy vz
quit

################################################################################
##################################    Init    ##################################
################################################################################
units           real
atom_style      full
pair_style      lj/cut/coul/long 12.0  12.0
kspace_style    pppm 1e-4
bond_style      harmonic
angle_style     harmonic
dihedral_style  fourier
special_bonds   amber
pair_modify     mix arithmetic
read_data       temp.lmps
  orthogonal box = (-7.93173 -7.93173 -7.93173) to (7.93173 7.93173 7.93173)
  reading atoms ...
  71 atoms
  reading velocities ...
  71 velocities
  scanning bonds ...
  scanning angles ...
  scanning dihedrals ...
  reading bonds ...
  70 bonds
  reading angles ...
  127 angles
  reading dihedrals ...
  198 dihedrals
################################################################################

timestep        1
fix             pysimm_md all nve/limit 0.1
run             2000
PPPM initialization ...
  G vector (1/distance) = 0.196806
  grid = 5 5 5
  stencil order = 5
  estimated absolute RMS force accuracy = 0.0056169
  estimated relative force accuracy = 1.69151e-05
  3d grid and FFT values/proc = 1000 125
  update every 1 steps, delay 10 steps, check yes
Step Temp E_pair E_mol TotEng Press
0     1.502003   -21.245661    916.96595    896.03369   -13033.329
Loop time of 0.445956 on 1 procs for 2000 steps with 71 atoms

unfix pysimm_md
min_style fire
minimize 0.001 0.001 10000 100000
PPPM initialization ...
  G vector (1/distance) = 0.196806
  grid = 5 5 5
  stencil order = 5
  estimated absolute RMS force accuracy = 0.0056169
  estimated relative force accuracy = 1.69151e-05
  3d grid and FFT values/proc = 1000 125
Step Temp E_pair E_mol TotEng Press
2000            0   -13.231281    132.72605    119.49477   -1726.0901
Loop time of 0.0222659 on 1 procs for 87 steps with 71 atoms

Minimization stats:
  Stopping criterion = energy tolerance
  Energy initial, next-to-last, final =
  Force two-norm initial, final = 359.745 13.3489
  Force max component initial, final = 109.377 4.38207
  Final line search alpha, max atom move = 0 0
  Iterations, force evaluations = 87 87

write_dump all custom pysimm.dump.tmp id q x y z vx vy vz
quit

################################################################################
##################################    Init    ##################################
################################################################################
units           real
atom_style      full
pair_style      lj/cut/coul/long 12.0  12.0
kspace_style    pppm 1e-4
bond_style      harmonic
angle_style     harmonic
dihedral_style  fourier
special_bonds   amber
pair_modify     mix arithmetic
read_data       temp.lmps
  orthogonal box = (-7.93173 -7.93173 -7.93173) to (7.93173 7.93173 7.93173)
  reading atoms ...
  78 atoms
  reading velocities ...
  78 velocities
  scanning bonds ...
  scanning angles ...
  scanning dihedrals ...
  reading bonds ...
  77 bonds
  reading angles ...
  140 angles
  reading dihedrals ...
  219 dihedrals
################################################################################

timestep        1
fix             pysimm_md all nve/limit 0.1
run             2000
PPPM initialization ...
  G vector (1/distance) = 0.196807
  grid = 5 5 5
  stencil order = 5
  estimated absolute RMS force accuracy = 0.00589236
  estimated relative force accuracy = 1.77447e-05
  3d grid and FFT values/proc = 1000 125
  update every 1 steps, delay 10 steps, check yes
Step Temp E_pair E_mol TotEng Press
0   0.75643918    558546.08    878.02522    559424.28     38371976
Loop time of 0.568115 on 1 procs for 2000 steps with 78 atoms

unfix pysimm_md
min_style fire
minimize 0.001 0.001 10000 100000
PPPM initialization ...
  G vector (1/distance) = 0.196807
  grid = 5 5 5
  stencil order = 5
  estimated absolute RMS force accuracy = 0.00589236
  estimated relative force accuracy = 1.77447e-05
  3d grid and FFT values/proc = 1000 125
Step Temp E_pair E_mol TotEng Press
2000            0   -17.161696    126.18352    109.02182    150.94288
Loop time of 0.0353708 on 1 procs for 104 steps with 78 atoms

Minimization stats:
  Stopping criterion = energy tolerance
  Energy initial, next-to-last, final =
  Force two-norm initial, final = 324.028 11.87
  Force max component initial, final = 95.6158 4.36947
  Final line search alpha, max atom move = 0 0
  Iterations, force evaluations = 104 104

write_dump all custom pysimm.dump.tmp id q x y z vx vy vz
quit

################################################################################
##################################    Init    ##################################
################################################################################
units           real
atom_style      full
pair_style      lj/cut/coul/long 12.0  12.0
kspace_style    pppm 1e-4
bond_style      harmonic
angle_style     harmonic
dihedral_style  fourier
special_bonds   amber
pair_modify     mix arithmetic
read_data       temp.lmps
  orthogonal box = (-7.93173 -7.93173 -7.93173) to (7.93173 7.93173 7.93173)
  reading atoms ...
  85 atoms
  reading velocities ...
  85 velocities
  scanning bonds ...
  scanning angles ...
  scanning dihedrals ...
  reading bonds ...
  84 bonds
  reading angles ...
  153 angles
  reading dihedrals ...
  240 dihedrals
################################################################################

timestep        1
fix             pysimm_md all nve/limit 0.1
run             2000
PPPM initialization ...
  G vector (1/distance) = 0.196807
  grid = 5 5 5
  stencil order = 5
  estimated absolute RMS force accuracy = 0.00615551
  estimated relative force accuracy = 1.85371e-05
  3d grid and FFT values/proc = 1000 125
  update every 1 steps, delay 10 steps, check yes
Step Temp E_pair E_mol TotEng Press
0     1.411436   -28.847271    908.03558    879.54171   -12535.677
Loop time of 0.632629 on 1 procs for 2000 steps with 85 atoms

unfix pysimm_md
min_style fire
minimize 0.001 0.001 10000 100000
PPPM initialization ...
  G vector (1/distance) = 0.196807
  grid = 5 5 5
  stencil order = 5
  estimated absolute RMS force accuracy = 0.00615551
  estimated relative force accuracy = 1.85371e-05
  3d grid and FFT values/proc = 1000 125
Step Temp E_pair E_mol TotEng Press
2000            0   -24.255841    144.43636    120.18052   -3491.9456
Loop time of 0.0465851 on 1 procs for 125 steps with 85 atoms

Minimization stats:
  Stopping criterion = energy tolerance
  Energy initial, next-to-last, final =
  Force two-norm initial, final = 317.961 13.4047
  Force max component initial, final = 122.219 3.7706
  Final line search alpha, max atom move = 0 0
  Iterations, force evaluations = 125 125

write_dump all custom pysimm.dump.tmp id q x y z vx vy vz
quit

################################################################################
##################################    Init    ##################################
################################################################################
units           real
atom_style      full
pair_style      lj/cut/coul/long 12.0  12.0
kspace_style    pppm 1e-4
bond_style      harmonic
angle_style     harmonic
dihedral_style  fourier
special_bonds   amber
pair_modify     mix arithmetic
read_data       temp.lmps
  orthogonal box = (-7.93173 -7.93173 -7.93173) to (7.93173 7.93173 7.93173)
  reading atoms ...
  92 atoms
  reading velocities ...
  92 velocities
  scanning bonds ...
  scanning angles ...
  scanning dihedrals ...
  reading bonds ...
  91 bonds
  reading angles ...
  166 angles
  reading dihedrals ...
  261 dihedrals
################################################################################

timestep        1
fix             pysimm_md all nve/limit 0.1
run             2000
PPPM initialization ...
  G vector (1/distance) = 0.196807
  grid = 5 5 5
  stencil order = 5
  estimated absolute RMS force accuracy = 0.00640787
  estimated relative force accuracy = 1.92971e-05
  3d grid and FFT values/proc = 1000 125
  update every 1 steps, delay 10 steps, check yes
Step Temp E_pair E_mol TotEng Press
0   0.65682065   -33.979975 -1.190975e+27 -1.190975e+27 -2.9925409e+42
Loop time of 0.681571 on 1 procs for 2000 steps with 92 atoms

unfix pysimm_md
min_style fire
minimize 0.001 0.001 10000 100000
PPPM initialization ...
  G vector (1/distance) = 0.196807
  grid = 5 5 5
  stencil order = 5
  estimated absolute RMS force accuracy = 0.00640787
  estimated relative force accuracy = 1.92971e-05
  3d grid and FFT values/proc = 1000 125
Step Temp E_pair E_mol TotEng Press
2000            0   -23.102943    134.76684     111.6639   -315.83063
Loop time of 0.0182769 on 1 procs for 46 steps with 92 atoms

Minimization stats:
  Stopping criterion = energy tolerance
  Energy initial, next-to-last, final =
  Force two-norm initial, final = 300.883 40.3485
  Force max component initial, final = 83.1585 10.3796
  Final line search alpha, max atom move = 0 0
  Iterations, force evaluations = 46 46

write_dump all custom pysimm.dump.tmp id q x y z vx vy vz
quit

################################################################################
##################################    Init    ##################################
################################################################################
units           real
atom_style      full
pair_style      lj/cut/coul/long 12.0  12.0
kspace_style    pppm 1e-4
bond_style      harmonic
angle_style     harmonic
dihedral_style  fourier
special_bonds   amber
pair_modify     mix arithmetic
read_data       temp.lmps
  orthogonal box = (-7.93173 -7.93173 -7.93173) to (7.93173 7.93173 7.93173)
  reading atoms ...
  99 atoms
  reading velocities ...
  99 velocities
  scanning bonds ...
  scanning angles ...
  scanning dihedrals ...
  reading bonds ...
  98 bonds
  reading angles ...
  179 angles
  reading dihedrals ...
  282 dihedrals
################################################################################

timestep        1
fix             pysimm_md all nve/limit 0.1
run             2000
PPPM initialization ...
  G vector (1/distance) = 0.196807
  grid = 5 5 5
  stencil order = 5
  estimated absolute RMS force accuracy = 0.00665066
  estimated relative force accuracy = 2.00283e-05
  3d grid and FFT values/proc = 1000 125
  update every 1 steps, delay 10 steps, check yes
Step Temp E_pair E_mol TotEng Press
0    8.6303842     24459689 8.3863991e+26 8.3863991e+26 -9.3516902e+40
Loop time of 0.782215 on 1 procs for 2000 steps with 99 atoms

unfix pysimm_md
min_style fire
minimize 0.001 0.001 10000 100000
PPPM initialization ...
  G vector (1/distance) = 0.196807
  grid = 5 5 5
  stencil order = 5
  estimated absolute RMS force accuracy = 0.00665066
  estimated relative force accuracy = 2.00283e-05
  3d grid and FFT values/proc = 1000 125
Step Temp E_pair E_mol TotEng Press
2000            0    -12.94254    243.52868    230.58614   -3136.6468
Loop time of 0.024389 on 1 procs for 51 steps with 99 atoms

Minimization stats:
  Stopping criterion = energy tolerance
  Energy initial, next-to-last, final =
  Force two-norm initial, final = 479.789 68.0547
  Force max component initial, final = 97.0911 15.6719
  Final line search alpha, max atom move = 0 0
  Iterations, force evaluations = 51 51

write_dump all custom pysimm.dump.tmp id q x y z vx vy vz
quit

################################################################################
##################################    Init    ##################################
################################################################################
units           real
atom_style      full
pair_style      lj/cut/coul/long 12.0  12.0
kspace_style    pppm 1e-4
bond_style      harmonic
angle_style     harmonic
dihedral_style  fourier
special_bonds   amber
pair_modify     mix arithmetic
read_data       temp.lmps
  orthogonal box = (-7.93173 -7.93173 -7.93173) to (7.93173 7.93173 7.93173)
  reading atoms ...
  106 atoms
  reading velocities ...
  106 velocities
  scanning bonds ...
  scanning angles ...
  scanning dihedrals ...
  reading bonds ...
  105 bonds
  reading angles ...
  192 angles
  reading dihedrals ...
  303 dihedrals
################################################################################

timestep        1
fix             pysimm_md all nve/limit 0.1
run             2000
PPPM initialization ...
  G vector (1/distance) = 0.196807
  grid = 5 5 5
  stencil order = 5
  estimated absolute RMS force accuracy = 0.00688489
  estimated relative force accuracy = 2.07336e-05
  3d grid and FFT values/proc = 1000 125
  update every 1 steps, delay 10 steps, check yes
Step Temp E_pair E_mol TotEng Press
0    31.447503    3625.2365     916.0099     4551.089    238087.89
Loop time of 0.893586 on 1 procs for 2000 steps with 106 atoms

unfix pysimm_md
min_style fire
minimize 0.001 0.001 10000 100000
PPPM initialization ...
  G vector (1/distance) = 0.196807
  grid = 5 5 5
  stencil order = 5
  estimated absolute RMS force accuracy = 0.00688489
  estimated relative force accuracy = 2.07336e-05
  3d grid and FFT values/proc = 1000 125
Step Temp E_pair E_mol TotEng Press
2000            0   -30.470329    178.18138    147.71105   -6486.1252
Loop time of 0.0329709 on 1 procs for 56 steps with 106 atoms

Minimization stats:
  Stopping criterion = energy tolerance
  Energy initial, next-to-last, final =
  Force two-norm initial, final = 343.861 37.3294
  Force max component initial, final = 80.8653 8.51332
  Final line search alpha, max atom move = 0 0
  Iterations, force evaluations = 56 56

write_dump all custom pysimm.dump.tmp id q x y z vx vy vz
quit

################################################################################
##################################    Init    ##################################
################################################################################
units           real
atom_style      full
pair_style      lj/cut/coul/long 12.0  12.0
kspace_style    pppm 1e-4
bond_style      harmonic
angle_style     harmonic
dihedral_style  fourier
special_bonds   amber
pair_modify     mix arithmetic
read_data       temp.lmps
  orthogonal box = (-7.93173 -7.93173 -7.93173) to (7.93173 7.93173 7.93173)
  reading atoms ...
  114 atoms
  reading velocities ...
  114 velocities
  scanning bonds ...
  scanning angles ...
  scanning dihedrals ...
  reading bonds ...
  113 bonds
  reading angles ...
  208 angles
  reading dihedrals ...
  327 dihedrals
################################################################################

timestep        1
fix             pysimm_md all nve/limit 0.1
run             2000
PPPM initialization ...
  G vector (1/distance) = 0.196807
  grid = 5 5 5
  stencil order = 5
  estimated absolute RMS force accuracy = 0.00706002
  estimated relative force accuracy = 2.1261e-05
  3d grid and FFT values/proc = 1000 125
  update every 1 steps, delay 10 steps, check yes
Step Temp E_pair E_mol TotEng Press
0    10.171214   -38.393952    946.29211    911.32414   -15254.696
Loop time of 1.03012 on 1 procs for 2000 steps with 114 atoms

unfix pysimm_md
min_style fire
minimize 0.001 0.001 10000 100000
PPPM initialization ...
  G vector (1/distance) = 0.196807
  grid = 5 5 5
  stencil order = 5
  estimated absolute RMS force accuracy = 0.00706002
  estimated relative force accuracy = 2.1261e-05
  3d grid and FFT values/proc = 1000 125
Step Temp E_pair E_mol TotEng Press
2000            0   -25.481665    139.58572    114.10406    1826.3867
Loop time of 0.0362029 on 1 procs for 56 steps with 114 atoms

Minimization stats:
  Stopping criterion = energy tolerance
  Energy initial, next-to-last, final =
  Force two-norm initial, final = 317.406 28.9058
  Force max component initial, final = 108.564 7.32476
  Final line search alpha, max atom move = 0 0
  Iterations, force evaluations = 56 56

write_dump all custom pysimm.dump.tmp id q x y z vx vy vz
quit
